%mem=100GB
%nproc=28
#p opt(nomicro,recalc=5) freq geom=conn external="/share/home/jwweng/XO/stable20240408/external_uxo.py" nosymm

handle gaussian file - write gjf file with lines

0 1
 C     -8.633492100000     1.413038800000     0.000000000000
 C     -8.695721900000     0.692071900000    -1.213505400000
 C     -8.695721900000    -0.692071900000    -1.213505400000
 C     -8.633492100000    -1.413038800000     0.000000000000
 C     -8.695721900000    -0.692071900000     1.213505400000
 C     -8.695721900000     0.692071900000     1.213505400000
 C     -8.349811500000     2.798129900000     0.000000000000
 C     -7.882785000000     3.925631700000     0.000000000000
 C     -8.349811500000    -2.798129900000     0.000000000000
 C     -7.882785000000    -3.925631700000     0.000000000000
 C     -7.103970100000    -5.105631500000     0.000000000000
 C     -6.638172700000    -5.659435200000    -1.213505400000
 C     -5.659435200000    -6.638172700000    -1.213505400000
 C     -5.105631500000    -7.103970100000     0.000000000000
 C     -5.659435200000    -6.638172700000     1.213505400000
 C     -6.638172700000    -5.659435200000     1.213505400000
 C     -7.103970100000     5.105631500000     0.000000000000
 C     -6.638172700000     5.659435200000    -1.213505400000
 C     -5.659435200000     6.638172700000    -1.213505400000
 C     -5.105631500000     7.103970100000     0.000000000000
 C     -5.659435200000     6.638172700000     1.213505400000
 C     -6.638172700000     5.659435200000     1.213505400000
 C     -3.925631700000    -7.882785000000     0.000000000000
 C     -2.798129900000    -8.349811500000     0.000000000000
 C     -1.413038800000    -8.633492100000     0.000000000000
 C     -0.692071900000    -8.695721900000    -1.213505400000
 C      0.692071900000    -8.695721900000    -1.213505400000
 C      1.413038800000    -8.633492100000     0.000000000000
 C      0.692071900000    -8.695721900000     1.213505400000
 C     -0.692071900000    -8.695721900000     1.213505400000
 C      7.103970100000    -5.105631500000     0.000000000000
 C      6.638172700000    -5.659435200000     1.213505400000
 C      5.659435200000    -6.638172700000     1.213505400000
 C      5.105631500000    -7.103970100000     0.000000000000
 C      5.659435200000    -6.638172700000    -1.213505400000
 C      6.638172700000    -5.659435200000    -1.213505400000
 C      3.925631700000    -7.882785000000     0.000000000000
 C      2.798129900000    -8.349811500000     0.000000000000
 C      8.695721900000     0.692071900000    -1.213505400000
 C      8.695721900000    -0.692071900000    -1.213505400000
 C      8.633492100000    -1.413038800000     0.000000000000
 C      8.695721900000    -0.692071900000     1.213505400000
 C      8.695721900000     0.692071900000     1.213505400000
 C      7.882785000000    -3.925631700000     0.000000000000
 C      8.349811500000    -2.798129900000     0.000000000000
 C      8.633492100000     1.413038800000     0.000000000000
 C     -3.925631700000     7.882785000000     0.000000000000
 C     -2.798129900000     8.349811500000     0.000000000000
 C     -1.413038800000     8.633492100000     0.000000000000
 C     -0.692071900000     8.695721900000     1.213505400000
 C      0.692071900000     8.695721900000     1.213505400000
 C      1.413038800000     8.633492100000     0.000000000000
 C      0.692071900000     8.695721900000    -1.213505400000
 C     -0.692071900000     8.695721900000    -1.213505400000
 C      2.798129900000     8.349811500000     0.000000000000
 C      3.925631700000     7.882785000000     0.000000000000
 C      5.105631500000     7.103970100000     0.000000000000
 C      5.659435200000     6.638172700000     1.213505400000
 C      6.638172700000     5.659435200000     1.213505400000
 C      7.103970100000     5.105631500000     0.000000000000
 C      6.638172700000     5.659435200000    -1.213505400000
 C      5.659435200000     6.638172700000    -1.213505400000
 C      7.882785000000     3.925631700000     0.000000000000
 C      8.349811500000     2.798129900000     0.000000000000
 H     -8.682019000000     1.237260000000    -2.151784600000
 H     -8.682019000000    -1.237260000000    -2.151784600000
 H     -8.682019000000    -1.237260000000     2.151784600000
 H     -8.682019000000     1.237260000000     2.151784600000
 H     -7.013989400000    -5.264239600000    -2.151784600000
 H     -5.264239600000    -7.013989400000    -2.151784600000
 H     -5.264239600000    -7.013989400000     2.151784600000
 H     -7.013989400000    -5.264239600000     2.151784600000
 H     -7.013989400000     5.264239600000    -2.151784600000
 H     -5.264239600000     7.013989400000    -2.151784600000
 H     -5.264239600000     7.013989400000     2.151784600000
 H     -7.013989400000     5.264239600000     2.151784600000
 H     -1.237260000000    -8.682019000000    -2.151784600000
 H      1.237260000000    -8.682019000000    -2.151784600000
 H      1.237260000000    -8.682019000000     2.151784600000
 H     -1.237260000000    -8.682019000000     2.151784600000
 H      7.013989400000    -5.264239600000     2.151784600000
 H      5.264239600000    -7.013989400000     2.151784600000
 H      5.264239600000    -7.013989400000    -2.151784600000
 H      7.013989400000    -5.264239600000    -2.151784600000
 H      8.682019000000     1.237260000000    -2.151784600000
 H      8.682019000000    -1.237260000000    -2.151784600000
 H      8.682019000000    -1.237260000000     2.151784600000
 H      8.682019000000     1.237260000000     2.151784600000
 H     -1.237260000000     8.682019000000     2.151784600000
 H      1.237260000000     8.682019000000     2.151784600000
 H      1.237260000000     8.682019000000    -2.151784600000
 H     -1.237260000000     8.682019000000    -2.151784600000
 H      5.264239600000     7.013989400000     2.151784600000
 H      7.013989400000     5.264239600000     2.151784600000
 H      7.013989400000     5.264239600000    -2.151784600000
 H      5.264239600000     7.013989400000    -2.151784600000

 1 2 1.0 6 2.0 7 1.0 
 2 3 2.0 65 1.0 
 3 4 1.0 66 1.0 
 4 5 2.0 9 1.0 
 5 6 1.0 67 1.0 
 6 68 1.0 
 7 8 3.0 
 8 17 1.0 
 9 10 3.0 
 10 11 1.0 
 11 12 1.0 16 2.0 
 12 13 2.0 69 1.0 
 13 14 1.0 70 1.0 
 14 15 2.0 23 1.0 
 15 16 1.0 71 1.0 
 16 72 1.0 
 17 18 2.0 22 1.0 
 18 19 1.0 73 1.0 
 19 20 2.0 74 1.0 
 20 21 1.0 47 1.0 
 21 22 2.0 75 1.0 
 22 76 1.0 
 23 24 3.0 
 24 25 1.0 
 25 26 1.0 30 2.0 
 26 27 2.0 77 1.0 
 27 28 1.0 78 1.0 
 28 29 2.0 38 1.0 
 29 30 1.0 79 1.0 
 30 80 1.0 
 31 32 2.0 36 1.0 44 1.0 
 32 33 1.0 81 1.0 
 33 34 2.0 82 1.0 
 34 35 1.0 37 1.0 
 35 36 2.0 83 1.0 
 36 84 1.0 
 37 38 3.0 
 38 
 39 40 1.0 46 2.0 85 1.0 
 40 41 2.0 86 1.0 
 41 42 1.0 45 1.0 
 42 43 2.0 87 1.0 
 43 46 1.0 88 1.0 
 44 45 3.0 
 45 
 46 64 1.0 
 47 48 3.0 
 48 49 1.0 
 49 50 1.0 54 2.0 
 50 51 2.0 89 1.0 
 51 52 1.0 90 1.0 
 52 53 2.0 55 1.0 
 53 54 1.0 91 1.0 
 54 92 1.0 
 55 56 3.0 
 56 57 1.0 
 57 58 1.0 62 2.0 
 58 59 2.0 93 1.0 
 59 60 1.0 94 1.0 
 60 61 2.0 63 1.0 
 61 62 1.0 95 1.0 
 62 96 1.0 
 63 64 3.0 
 64 
 65 
 66 
 67 
 68 
 69 
 70 
 71 
 72 
 73 
 74 
 75 
 76 
 77 
 78 
 79 
 80 
 81 
 82 
 83 
 84 
 85 
 86 
 87 
 88 
 89 
 90 
 91 
 92 
 93 
 94 
 95 
 96 







