%mem=100GB
%nproc=28
#p WB97XD/6-31G** geom=conn nosymm

handle gaussian file - write gjf file with lines

0 1
 C     -4.768181300000     1.055180000000     0.258035600000
 C     -5.404878600000     1.008932900000    -1.141462600000
 C     -5.701220500000    -0.444103700000    -1.500238400000
 C     -6.566957600000    -1.095138700000    -0.429446700000
 C     -5.944054600000    -0.909255800000     0.961880000000
 O     -5.723994300000     0.476064700000     1.190458100000
 O     -4.520917600000     1.495171700000    -2.156656800000
 C     -4.781206100000     2.785510500000    -2.701673900000
 C     -4.543227800000     2.694090100000    -4.215579800000
 C     -3.048284300000     2.523575600000    -4.505456000000
 C     -2.230099300000     3.551832200000    -3.716597600000
 C     -2.551575400000     3.489738900000    -2.222593000000
 O     -3.970204000000     3.772428600000    -2.088196200000
 O     -0.848976900000     3.220246900000    -3.972844300000
 C     -0.001236400000     4.252249000000    -4.406619500000
 C      0.953485100000     3.686934500000    -5.462677200000
 C      1.895903200000     2.678342700000    -4.825609800000
 C      2.584595600000     3.292459700000    -3.610629300000
 C      1.526617100000     3.791846400000    -2.621755800000
 O      0.757980200000     4.801855600000    -3.328950700000
 O      3.409623700000     2.243014400000    -3.069720800000
 C      4.746414500000     2.564776300000    -2.768810500000
 C      5.633830300000     1.389108700000    -3.201904900000
 C      5.371280500000     0.166534400000    -2.332578500000
 C      5.483131300000     0.525706100000    -0.853551000000
 C      4.528771900000     1.693251100000    -0.551417300000
 O      4.936768200000     2.814587900000    -1.385565200000
 O      5.134514900000    -0.660053500000    -0.132450500000
 C      5.952570500000    -1.031431100000     0.972744500000
 C      6.131893500000    -2.555174800000     0.904913700000
 C      4.802859600000    -3.244930600000     1.224394700000
 C      4.198910700000    -2.665659000000     2.507507000000
 C      4.045333400000    -1.146928700000     2.407446200000
 O      5.379494900000    -0.610257800000     2.197718700000
 O      2.926938300000    -3.330327500000     2.662246500000
 C      2.630627900000    -3.881554900000     3.920927900000
 C      1.922557300000    -5.227257200000     3.707441200000
 C      0.551820500000    -5.017016100000     3.077329900000
 C     -0.260696100000    -4.007532900000     3.882638000000
 C      0.547910400000    -2.706115900000     4.010217800000
 O      1.790376300000    -3.033380200000     4.693412300000
 O     -1.483837900000    -3.815323400000     3.163916800000
 C     -2.699254600000    -3.847485600000     3.904870900000
 O     -3.139037800000    -2.539113900000     4.225879700000
 C     -3.342957500000    -1.709866300000     3.049613600000
 C     -4.474986400000    -2.359648900000     2.252048900000
 C     -4.105247300000    -3.784529400000     1.828903800000
 C     -3.722963400000    -4.615937100000     3.056659900000
 C     -3.594173300000    -0.279784700000     3.552161700000
 O     -2.589832500000     0.642924100000     3.117546500000
 O     -3.236414800000    -5.912273600000     2.749763600000
 O     -5.212070100000    -4.397257100000     1.174125100000
 O     -4.752234900000    -1.653270300000     1.024107700000
 O     -0.184551700000    -6.244376200000     3.034847400000
 O      2.663973800000    -6.099304700000     2.828065600000
 C     -0.112067600000    -1.564797200000     4.798978000000
 O     -0.210338900000    -0.357683400000     4.036888600000
 O      5.024907600000    -4.643119900000     1.382109700000
 O      6.693947200000    -2.929175400000    -0.342285500000
 C      3.466769800000    -0.434297800000     3.639070000000
 O      2.329979300000     0.377177200000     3.324903000000
 O      6.319742400000    -0.869823800000    -2.610141500000
 O      5.385668900000     1.004139000000    -4.573509300000
 C      4.504500000000     2.200148400000     0.898692300000
 O      3.187739100000     2.200272000000     1.457703900000
 O      2.843238300000     2.284161800000    -5.822942300000
 O      0.175553500000     3.105314600000    -6.513335900000
 C      2.045092800000     4.430752400000    -1.323111300000
 O      1.602236500000     3.730050700000    -0.157180700000
 O     -2.829010500000     2.690577400000    -5.900343600000
 O     -5.361478900000     1.680858500000    -4.779057900000
 C     -1.808976100000     4.489708600000    -1.324434600000
 O     -1.121814000000     3.853945200000    -0.239078400000
 O     -6.363096500000    -0.461045700000    -2.769624500000
 O     -6.703147800000    -2.487843300000    -0.783949500000
 C     -4.405319400000     2.446546900000     0.798328700000
 O     -3.036840000000     2.539781000000     1.207136200000
 H      3.282518500000    -6.623944100000     3.359821900000
 H      0.359426800000    -6.877048100000     2.535542100000
 H      6.285166700000    -2.369796900000    -1.033703100000
 H      4.159966100000    -5.032789200000     1.619519400000
 H      6.002552700000     1.486436500000    -5.145476500000
 H      6.231292600000    -1.083469700000    -3.554384300000
 H      0.788940800000     2.578176800000    -7.053483600000
 H      3.480046200000     1.681967900000    -5.386868400000
 H     -5.371739500000     0.926352800000    -4.156123800000
 H     -1.863183900000     2.642827900000    -6.050647000000
 H     -7.559999600000    -2.808125100000    -0.461675100000
 H     -6.559497300000    -1.392615200000    -2.967099400000
 H     -2.274333400000    -5.839828700000     2.584891600000
 H     -5.449397700000    -3.809722800000     0.429092400000
 H      3.544553900000    -3.999984200000     4.515251800000
 H      1.789444900000    -5.704680800000     4.686108800000
 H      0.684234800000    -4.618977500000     2.061126900000
 H     -0.477337200000    -4.413174400000     4.880918800000
 H      0.780294500000    -2.338216400000     3.004437200000
 H      6.922135700000    -0.526335900000     0.908987300000
 H      6.858779300000    -2.846693800000     1.672099100000
 H      4.095914200000    -3.054819400000     0.401746000000
 H      4.843986200000    -2.917247300000     3.361002900000
 H      3.419422300000    -0.906240900000     1.540375700000
 H      5.041081800000     3.492850900000    -3.273372000000
 H      6.682742700000     1.685625900000    -3.081320400000
 H      4.349775000000    -0.193626600000    -2.521003500000
 H      6.516631100000     0.814586800000    -0.615596600000
 H      3.511232200000     1.395410100000    -0.828453800000
 H     -0.580630000000     5.089868900000    -4.808600200000
 H      1.548772700000     4.524236300000    -5.855933100000
 H      1.313217400000     1.809175900000    -4.486701100000
 H      3.221660600000     4.131456700000    -3.923520100000
 H      0.865398500000     2.959671400000    -2.354224700000
 H     -5.815413700000     3.078726400000    -2.492112400000
 H     -4.867038700000     3.639184300000    -4.666921900000
 H     -2.733426200000     1.520650300000    -4.175153100000
 H     -2.439381700000     4.559507500000    -4.101339300000
 H     -2.349915100000     2.476769900000    -1.855129200000
 H     -6.635382700000    -1.224469600000     1.752745700000
 H     -7.550421900000    -0.609084800000    -0.432018700000
 H     -4.745522400000    -0.984010100000    -1.563175400000
 H     -6.335904200000     1.593242300000    -1.149406200000
 H     -3.860527000000     0.440775700000     0.249986500000
 H     -2.540486900000    -4.349965600000     4.864888000000
 H     -4.625964900000    -4.758361300000     3.662089500000
 H     -3.238029800000    -3.725531200000     1.152886900000
 H     -5.386982500000    -2.387578100000     2.865078900000
 H     -2.428704900000    -1.711387900000     2.444681900000
 H      5.102039100000     1.556480000000     1.545403400000
 H      4.930284600000     3.211790700000     0.909879900000
 H      2.595386600000     2.777624900000     0.907167200000
 H      3.119877900000    -1.157267000000     4.378862000000
 H      4.264286100000     0.173757400000     4.085129200000
 H      2.596914800000     1.067983500000     2.664011200000
 H     -1.134380400000    -1.825760700000     5.076341200000
 H      0.474289400000    -1.400583000000     5.712118800000
 H      0.698187600000    -0.048771800000     3.780707100000
 H     -4.538964700000     0.108245100000     3.168287600000
 H     -3.642550000000    -0.309798100000     4.648268200000
 H     -1.705093700000     0.338087600000     3.448223400000
 H      3.136047900000     4.414181000000    -1.285562000000
 H      1.706389600000     5.474396000000    -1.300391300000
 H     -4.536736800000     3.207712400000     0.028490000000
 H     -5.075420400000     2.668279800000     1.638868700000
 H     -2.854573300000     1.872780400000     1.920573400000
 H     -1.044213700000     5.023620400000    -1.890568400000
 H     -2.539660300000     5.215341900000    -0.945217200000
 H     -1.782943100000     3.374571100000     0.326430500000
 H      0.608669800000     3.759832000000    -0.120511600000

 1 2 1.0 6 1.0 76 1.0 121 1.0 
 2 3 1.0 7 1.0 120 1.0 
 3 4 1.0 74 1.0 119 1.0 
 4 5 1.0 75 1.0 118 1.0 
 5 6 1.0 53 1.0 117 1.0 
 6 
 7 8 1.0 
 8 9 1.0 13 1.0 112 1.0 
 9 10 1.0 71 1.0 113 1.0 
 10 11 1.0 70 1.0 114 1.0 
 11 12 1.0 14 1.0 115 1.0 
 12 13 1.0 72 1.0 116 1.0 
 13 
 14 15 1.0 
 15 16 1.0 20 1.0 107 1.0 
 16 17 1.0 67 1.0 108 1.0 
 17 18 1.0 66 1.0 109 1.0 
 18 19 1.0 21 1.0 110 1.0 
 19 20 1.0 68 1.0 111 1.0 
 20 
 21 22 1.0 
 22 23 1.0 27 1.0 102 1.0 
 23 24 1.0 63 1.0 103 1.0 
 24 25 1.0 62 1.0 104 1.0 
 25 26 1.0 28 1.0 105 1.0 
 26 27 1.0 64 1.0 106 1.0 
 27 
 28 29 1.0 
 29 30 1.0 34 1.0 97 1.0 
 30 31 1.0 59 1.0 98 1.0 
 31 32 1.0 58 1.0 99 1.0 
 32 33 1.0 35 1.0 100 1.0 
 33 34 1.0 60 1.0 101 1.0 
 34 
 35 36 1.0 
 36 37 1.0 41 1.0 92 1.0 
 37 38 1.0 55 1.0 93 1.0 
 38 39 1.0 54 1.0 94 1.0 
 39 40 1.0 42 1.0 95 1.0 
 40 41 1.0 56 1.0 96 1.0 
 41 
 42 43 1.0 
 43 44 1.0 48 1.0 122 1.0 
 44 45 1.0 
 45 46 1.0 49 1.0 126 1.0 
 46 47 1.0 53 1.0 125 1.0 
 47 48 1.0 52 1.0 124 1.0 
 48 51 1.0 123 1.0 
 49 50 1.0 136 1.0 137 1.0 
 50 138 1.0 
 51 90 1.0 
 52 91 1.0 
 53 
 54 79 1.0 
 55 78 1.0 
 56 57 1.0 133 1.0 134 1.0 
 57 135 1.0 
 58 81 1.0 
 59 80 1.0 
 60 61 1.0 130 1.0 131 1.0 
 61 132 1.0 
 62 83 1.0 
 63 82 1.0 
 64 65 1.0 127 1.0 128 1.0 
 65 129 1.0 
 66 85 1.0 
 67 84 1.0 
 68 69 1.0 139 1.0 140 1.0 
 69 147 1.0 
 70 87 1.0 
 71 86 1.0 
 72 73 1.0 144 1.0 145 1.0 
 73 146 1.0 
 74 89 1.0 
 75 88 1.0 
 76 77 1.0 141 1.0 142 1.0 
 77 143 1.0 
 78 
 79 
 80 
 81 
 82 
 83 
 84 
 85 
 86 
 87 
 88 
 89 
 90 
 91 
 92 
 93 
 94 
 95 
 96 
 97 
 98 
 99 
 100 
 101 
 102 
 103 
 104 
 105 
 106 
 107 
 108 
 109 
 110 
 111 
 112 
 113 
 114 
 115 
 116 
 117 
 118 
 119 
 120 
 121 
 122 
 123 
 124 
 125 
 126 
 127 
 128 
 129 
 130 
 131 
 132 
 133 
 134 
 135 
 136 
 137 
 138 
 139 
 140 
 141 
 142 
 143 
 144 
 145 
 146 
 147 







