%mem=100GB
%nproc=28
#p opt(nomicro,recalc=5) freq geom=conn external="/share/home/jwweng/XO/stable20240408/external_uxo.py" nosymm

handle gaussian file - write gjf file with lines

0 1
 C     -0.367163000000     1.360630200000     3.069628000000
 C      0.730924900000     1.991720200000     3.672705700000
 C      1.342872800000     3.108187900000     3.116931200000
 C      0.828023600000     3.612441800000     1.931100000000
 C     -0.282231200000     3.054666800000     1.282241800000
 C     -0.830788100000     1.904189500000     1.866015800000
 O      1.453445900000     4.745414000000     1.349239300000
 C      2.631729800000     4.479776700000     0.712521200000
 N      3.726927900000     4.275534000000     1.435557700000
 C      4.818247800000     4.010013500000     0.712278400000
 C      4.818579300000     3.957799500000    -0.675317900000
 N      3.728360400000     4.167286400000    -1.417340400000
 C      2.633095300000     4.425523800000    -0.711900400000
 C      6.195143400000     3.595317900000    -1.144046100000
 N      6.943448700000     3.441869000000     0.037614700000
 C      6.194317900000     3.678085600000     1.206320500000
 C      8.325099000000     2.942912400000     0.052950700000
 C      8.360553800000     1.428809200000     0.070889000000
 C      8.329653100000     0.735488100000     1.285544400000
 C      8.317341600000    -0.656966100000     1.302391500000
 C      8.334865200000    -1.379777100000     0.104594600000
 C      8.359276500000    -0.686637000000    -1.110259400000
 C      8.372693600000     0.706171100000    -1.126775800000
 O      6.626009200000     3.607848500000     2.338551500000
 O      6.628040700000     3.450134800000    -2.268895000000
 O      1.458577100000     4.649053200000    -1.366389200000
 C      0.832009800000     3.497957500000    -1.906091100000
 C      1.335702600000     2.950093200000    -3.076596300000
 C      0.698514300000     1.831656200000    -3.598941000000
 C     -0.421999800000     1.250372000000    -2.986471300000
 C     -0.889049900000     1.853119000000    -1.813020000000
 C     -0.294526700000     2.988354900000    -1.247329200000
 O      1.202906600000     1.489934900000     4.895568600000
 C      2.408157700000     0.820091200000     4.864952400000
 N      3.518591400000     1.496967700000     4.828817000000
 C      4.686713600000     0.781643200000     4.847615900000
 C      4.663389100000    -0.648330400000     4.896876400000
 N      3.472617500000    -1.325612100000     4.921222100000
 C      2.384316100000    -0.612712400000     4.909001800000
 C      5.878350500000    -1.366560800000     4.921361300000
 C      7.073893500000    -0.678055800000     4.913455200000
 C      7.096710600000     0.734649800000     4.865257300000
 C      5.924177500000     1.460735900000     4.823863800000
 O      1.156626300000    -1.240883600000     4.967687900000
 C      0.674206700000    -1.774324400000     3.761293600000
 C      1.280899200000    -2.909559800000     3.235700400000
 C      0.773866100000    -3.433438500000     2.055567300000
 C     -0.325568000000    -2.879511600000     1.385764300000
 C     -0.867707000000    -1.710054100000     1.936943100000
 C     -0.411833400000    -1.143456900000     3.134662000000
 O      1.389469300000    -4.581987000000     1.493874500000
 C      2.565150400000    -4.348517200000     0.840768400000
 N      3.660474600000    -4.109559300000     1.553732800000
 C      4.754953300000    -3.887804300000     0.821769500000
 C      4.759190600000    -3.906685800000    -0.566615100000
 N      3.669658700000    -4.150538100000    -1.298498100000
 C      2.570637400000    -4.370572900000    -0.585636200000
 C      6.133452100000    -3.547651200000     1.302701600000
 N      6.885926300000    -3.371188900000     0.126261500000
 C      6.139439000000    -3.577012700000    -1.049400000000
 C      8.274736000000    -2.893126200000     0.123330100000
 C     -0.966780000000     0.136185800000     3.751949700000
 C     -2.496486800000     0.210735900000     4.016227600000
 C     -3.502332700000    -0.057021400000     2.894246000000
 C     -4.965323400000     0.088233600000     3.343847100000
 C     -0.827508200000    -3.551857700000     0.113272200000
 C     -2.350379600000    -3.870121900000     0.033468700000
 C     -3.379086300000    -2.778599300000     0.348914900000
 C     -4.801629100000    -3.111031400000    -0.122546000000
 O      6.576441900000    -3.491529500000    -2.178490900000
 O      1.401640000000    -4.625650200000    -1.242705900000
 C      0.787691200000    -3.487962900000    -1.826744600000
 C      1.260590000000    -3.018677300000    -3.042895700000
 C      0.639431900000    -1.907805400000    -3.604980700000
 C     -0.423159100000    -1.244214100000    -2.973699100000
 C     -0.835386800000    -1.749196900000    -1.734618600000
 C     -0.286519000000    -2.895686100000    -1.151334400000
 O      6.565437300000    -3.435539400000     2.431513300000
 O      1.095275700000    -1.436036000000    -4.847708600000
 C      2.329645100000    -0.815493300000    -4.815415300000
 N      3.413293700000    -1.534869500000    -4.828513400000
 C      4.607547600000    -0.863217700000    -4.797082100000
 C      4.638100800000     0.566661700000    -4.740779000000
 N      3.473602000000     1.288627600000    -4.730345400000
 C      2.361032400000     0.615764800000    -4.772433500000
 C      5.878821300000     1.238465100000    -4.695692000000
 C      7.047687000000     0.505626300000    -4.720294200000
 C      7.017978300000    -0.906552700000    -4.774458300000
 C      5.818741100000    -1.587786800000    -4.806257800000
 C     -1.028474800000     0.000326000000    -3.615119200000
 C     -2.575106400000     0.016647200000    -3.786979900000
 C     -3.502652400000    -0.359903700000    -2.625264400000
 C     -4.991017900000    -0.178748100000    -2.961284200000
 O      1.154884200000     1.281086300000    -4.804995900000
 C     -0.806239400000     3.697764400000     0.002100100000
 C     -2.324150200000     4.038504800000    -0.034683400000
 C     -3.379782000000     2.991256800000     0.340778400000
 C     -4.815087500000     3.455103400000     0.044044600000
 H      2.204146100000     3.561607500000     3.591313800000
 H      5.921369100000     2.543224400000     4.762114200000
 H      8.050524300000     1.254456800000     4.856695600000
 H      8.010113500000    -1.228302200000     4.938965400000
 H      5.840644700000    -2.449888200000     4.932503800000
 H      2.136003900000    -3.356746100000     3.726821800000
 H     -1.662358700000    -1.209389900000     1.400982400000
 H      2.098362400000    -3.491775400000    -3.539768000000
 H     -1.611907000000    -1.222366900000    -1.197507500000
 H      5.775158500000    -2.670946100000    -4.820474100000
 H      7.951034200000    -1.462536300000    -4.782810400000
 H      8.004017300000     1.020067400000    -4.692619000000
 H      5.881793000000     2.320616900000    -4.627880500000
 H     -1.746735400000     1.418261800000    -1.315959300000
 H      2.203669600000     3.372831200000    -3.566537200000
 H      8.812315100000     3.337544900000    -0.841387900000
 H      8.797262100000     3.359175300000     0.945464600000
 H      8.300213300000     1.289891600000     2.218820100000
 H      8.278271600000    -1.188180100000     2.248723300000
 H      8.352001600000    -1.240915200000    -2.044216400000
 H      8.376146800000     1.238551500000    -2.073038400000
 H      8.750244700000    -3.316907500000    -0.763887900000
 H      8.746104200000    -3.294618900000     1.023113300000
 H     -1.643748800000     1.405324600000     1.355349900000
 H     -0.537168000000     0.158472000000     4.753509900000
 H     -0.356317100000    -4.534708700000     0.121658100000
 H     -0.646092000000     0.000625000000    -4.636485400000
 H     -0.321025600000     4.673748900000    -0.030752800000
 H     -2.674200700000     1.206232600000     4.440111800000
 H     -2.706965600000    -0.506383900000     4.821307300000
 H     -2.518543800000     4.403697000000    -1.049591400000
 H     -2.470679200000     4.897308900000     0.633401900000
 H     -2.836596600000     1.025163800000    -4.134246900000
 H     -2.795014100000    -0.660504100000    -4.620574200000
 H     -2.525950400000    -4.243900700000    -0.984287400000
 H     -2.531374200000    -4.716438500000     0.706269100000
 H     -3.333270000000     0.608861800000     2.039956500000
 H     -3.364940700000    -1.078031700000     2.533205300000
 H     -3.089231900000    -1.825372700000    -0.104620800000
 H     -3.402649400000    -2.615051700000     1.430989800000
 H     -3.275802300000     0.239933000000    -1.734998300000
 H     -3.341462600000    -1.407081700000    -2.350200900000
 H     -3.213345600000     2.045179300000    -0.190157800000
 H     -3.299596600000     2.770840500000     1.409853500000
 C     -5.375792300000     1.515111100000     3.728519600000
 H     -5.149964100000    -0.581749300000     4.196138300000
 H     -5.606732500000    -0.267821300000     2.527991000000
 H     -4.793519400000    -3.302663800000    -1.204961900000
 H     -5.424876300000    -2.221270500000     0.028803100000
 C     -5.439501100000    -4.304212500000     0.598572700000
 H     -5.165147400000     0.842873800000    -3.326596500000
 H     -5.564280000000    -0.277897200000    -2.031850600000
 C     -5.525104100000    -1.180037400000    -3.992915900000
 C     -5.126592100000     3.609415300000    -1.450120500000
 H     -5.005760900000     4.408752700000     0.556885700000
 H     -5.504780000000     2.724718900000     0.483882300000
 C     -6.868292400000     1.655238700000     4.068548600000
 H     -4.784466700000     1.846879600000     4.590449700000
 H     -5.129781100000     2.197627300000     2.902779300000
 C     -6.601631700000     3.924600000000    -1.747060200000
 H     -4.504119500000     4.405765900000    -1.875330000000
 H     -4.843838400000     2.684393000000    -1.971470400000
 C     -7.040124000000    -1.069433700000    -4.227813600000
 H     -5.006176400000    -1.035995000000    -4.948283700000
 H     -5.285921200000    -2.200450700000    -3.659274400000
 C     -6.912491500000    -4.530929200000     0.222210400000
 H     -4.869068800000    -5.214579400000     0.376742400000
 H     -5.365909300000    -4.147212500000     1.685059500000
 H     -7.246921500000    -5.480672900000     0.658016000000
 C     -7.848614400000    -3.410282200000     0.690807700000
 H     -6.992838700000    -4.646282400000    -0.867626200000
 H     -7.043014700000     2.652874800000     4.490646000000
 C     -7.798704400000     1.454702100000     2.866518900000
 H     -7.126317500000     0.936166500000     4.858129600000
 H     -6.697976600000     4.193351600000    -2.806589600000
 C     -7.558988900000     2.766712700000    -1.440210000000
 H     -6.902238600000     4.813299900000    -1.175222600000
 H     -7.312063400000    -1.705739000000    -5.079304200000
 C     -7.885329900000    -1.474082200000    -3.014198400000
 H     -7.285883900000    -0.039469000000    -4.521339200000
 H     -8.847160500000     1.587764200000     3.153150800000
 H     -7.573438700000     2.181667900000     2.077236000000
 H     -7.699408100000     0.452497300000     2.435882500000
 H     -8.591436100000     3.034189800000    -1.688592100000
 H     -7.293378800000     1.877909600000    -2.023540000000
 H     -7.537109500000     2.488739000000    -0.381375600000
 H     -8.954244900000    -1.433222000000    -3.248337600000
 H     -7.649162300000    -2.497369300000    -2.699450800000
 H     -7.711820900000    -0.814124000000    -2.157754600000
 H     -8.890439100000    -3.638956600000     0.443072300000
 H     -7.782498200000    -3.277998600000     1.777584800000
 H     -7.603396200000    -2.451784800000     0.221819700000

 1 2 1.0 6 2.0 62 1.0 
 2 3 2.0 33 1.0 
 3 4 1.0 99 1.0 
 4 5 2.0 7 1.0 
 5 6 1.0 95 1.0 
 6 122 1.0 
 7 8 1.0 
 8 9 2.0 13 1.0 
 9 10 1.0 
 10 11 2.0 16 1.0 
 11 12 1.0 14 1.0 
 12 13 2.0 
 13 26 1.0 
 14 15 1.0 25 2.0 
 15 16 1.0 17 1.0 
 16 24 2.0 
 17 18 1.0 114 1.0 115 1.0 
 18 19 2.0 23 1.0 
 19 20 1.0 116 1.0 
 20 21 2.0 117 1.0 
 21 22 1.0 61 1.0 
 22 23 2.0 118 1.0 
 23 119 1.0 
 24 
 25 
 26 27 1.0 
 27 28 1.0 32 2.0 
 28 29 2.0 113 1.0 
 29 30 1.0 94 1.0 
 30 31 2.0 90 1.0 
 31 32 1.0 112 1.0 
 32 95 1.0 
 33 34 1.0 
 34 35 2.0 39 1.0 
 35 36 1.0 
 36 37 1.0 43 2.0 
 37 38 1.0 40 2.0 
 38 39 2.0 
 39 44 1.0 
 40 41 1.0 103 1.0 
 41 42 2.0 102 1.0 
 42 43 1.0 101 1.0 
 43 100 1.0 
 44 45 1.0 
 45 46 2.0 50 1.0 
 46 47 1.0 104 1.0 
 47 48 2.0 51 1.0 
 48 49 1.0 66 1.0 
 49 50 2.0 105 1.0 
 50 62 1.0 
 51 52 1.0 
 52 53 2.0 57 1.0 
 53 54 1.0 
 54 55 2.0 58 1.0 
 55 56 1.0 60 1.0 
 56 57 2.0 
 57 71 1.0 
 58 59 1.0 78 2.0 
 59 60 1.0 61 1.0 
 60 70 2.0 
 61 120 1.0 121 1.0 
 62 63 1.0 123 1.0 
 63 64 1.0 127 1.0 128 1.0 
 64 65 1.0 135 1.0 136 1.0 
 65 143 1.0 144 1.0 145 1.0 
 66 67 1.0 77 1.0 124 1.0 
 67 68 1.0 133 1.0 134 1.0 
 68 69 1.0 137 1.0 138 1.0 
 69 146 1.0 147 1.0 148 1.0 
 70 
 71 72 1.0 
 72 73 2.0 77 1.0 
 73 74 1.0 106 1.0 
 74 75 2.0 79 1.0 
 75 76 1.0 90 1.0 
 76 77 2.0 107 1.0 
 77 
 78 
 79 80 1.0 
 80 81 2.0 85 1.0 
 81 82 1.0 
 82 83 2.0 89 1.0 
 83 84 1.0 86 1.0 
 84 85 2.0 
 85 94 1.0 
 86 87 2.0 111 1.0 
 87 88 1.0 110 1.0 
 88 89 2.0 109 1.0 
 89 108 1.0 
 90 91 1.0 125 1.0 
 91 92 1.0 131 1.0 132 1.0 
 92 93 1.0 139 1.0 140 1.0 
 93 149 1.0 150 1.0 151 1.0 
 94 
 95 96 1.0 126 1.0 
 96 97 1.0 129 1.0 130 1.0 
 97 98 1.0 141 1.0 142 1.0 
 98 152 1.0 153 1.0 154 1.0 
 99 
 100 
 101 
 102 
 103 
 104 
 105 
 106 
 107 
 108 
 109 
 110 
 111 
 112 
 113 
 114 
 115 
 116 
 117 
 118 
 119 
 120 
 121 
 122 
 123 
 124 
 125 
 126 
 127 
 128 
 129 
 130 
 131 
 132 
 133 
 134 
 135 
 136 
 137 
 138 
 139 
 140 
 141 
 142 
 143 155 1.0 156 1.0 157 1.0 
 144 
 145 
 146 
 147 
 148 164 1.0 165 1.0 166 1.0 
 149 
 150 
 151 161 1.0 162 1.0 163 1.0 
 152 158 1.0 159 1.0 160 1.0 
 153 
 154 
 155 170 1.0 171 1.0 172 1.0 
 156 
 157 
 158 173 1.0 174 1.0 175 1.0 
 159 
 160 
 161 176 1.0 177 1.0 178 1.0 
 162 
 163 
 164 167 1.0 168 1.0 169 1.0 
 165 
 166 
 167 
 168 188 1.0 189 1.0 190 1.0 
 169 
 170 
 171 179 1.0 180 1.0 181 1.0 
 172 
 173 
 174 182 1.0 183 1.0 184 1.0 
 175 
 176 
 177 185 1.0 186 1.0 187 1.0 
 178 
 179 
 180 
 181 
 182 
 183 
 184 
 185 
 186 
 187 
 188 
 189 
 190 







