%mem=100GB
%nproc=28
#p WB97XD/6-31G** geom=conn nosymm

handle gaussian file - write gjf file with lines

0 1
 O     -4.271332200000     0.063349200000    -3.131665200000
 O     -2.743203400000     3.530405600000    -3.113278900000
 O      0.897218600000     4.328718700000    -3.117272900000
 O      3.803869400000     1.861916700000    -3.134718600000
 O      3.893263200000    -1.993292900000    -3.122159100000
 O      1.032196200000    -4.376315200000    -3.113105100000
 O     -2.615482800000    -3.417116600000    -3.129343200000
 O     -4.449649100000    -0.067303000000     3.115149400000
 O     -2.696231500000     3.304116000000     3.134305800000
 O      1.045866000000     4.198534700000     3.128278700000
 O      4.057462700000     1.938879900000     3.113069100000
 O      3.963626300000    -1.794619000000     3.122605200000
 O      0.906271100000    -4.151810800000     3.133966200000
 O     -2.822171300000    -3.425094700000     3.116629400000
 N     -5.055094600000    -1.092810000000    -1.266288400000
 N     -5.134004300000     1.143555300000    -1.257864000000
 N     -4.053506700000     3.328119800000    -1.196701600000
 N     -2.347980600000     4.778315900000    -1.187188800000
 N      0.029959100000     5.329364700000    -1.202030300000
 N      2.188469000000     4.735549500000    -1.220016900000
 N      4.106305400000     3.234134900000    -1.277451800000
 N      5.039642700000     1.200741400000    -1.273638700000
 N      5.030915300000    -1.233039900000    -1.235075200000
 N      4.174365100000    -3.301111300000    -1.216464800000
 N      2.262199500000    -4.818828500000    -1.185496000000
 N      0.068771500000    -5.267123300000    -1.187404200000
 N     -2.314452200000    -4.756377100000    -1.248630500000
 N     -4.002427500000    -3.287409800000    -1.261030100000
 N     -5.192464700000    -1.148482200000     1.191100700000
 N     -5.114573400000     1.088962200000     1.203869800000
 N     -4.085258300000     3.297536100000     1.265166500000
 N     -2.298764500000     4.644913600000     1.270530000000
 N      0.073638100000     5.188425600000     1.255779500000
 N      2.275169900000     4.787458900000     1.240505700000
 N      4.160365500000     3.241455000000     1.183856200000
 N      5.160289200000     1.238439800000     1.184727800000
 N      5.173226200000    -1.202262800000     1.223257000000
 N      4.095643200000    -3.164222100000     1.241121600000
 N      2.199736000000    -4.689892700000     1.272119300000
 N      0.033091100000    -5.248418000000     1.274386400000
 N     -2.335398200000    -4.678053400000     1.212573900000
 N     -4.137586100000    -3.349781000000     1.196610900000
 C     -5.805336900000    -0.784980300000    -0.066130600000
 C     -5.806151000000     0.780707200000    -0.031831000000
 C     -2.928596400000    -3.765577100000    -2.009464100000
 C     -1.224566100000    -5.545004100000    -1.776745300000
 C     -4.233836300000     4.054844300000     0.043689500000
 C     -3.011394900000     5.033452900000     0.071372000000
 C      1.108675300000    -4.758310800000    -1.963406900000
 C      3.559209900000    -4.499618100000    -1.742658000000
 C      0.530503000000     5.848804600000     0.049599100000
 C      2.056665700000     5.500993600000     0.004012500000
 C      4.301366900000    -2.150423600000    -1.989781600000
 C      5.546870600000    -0.026223200000    -1.845965700000
 C      4.893125000000     3.229538500000    -0.065137100000
 C      5.569399800000     1.816863300000    -0.076063100000
 C      4.247901100000     2.067298300000    -2.023726200000
 C      5.571762300000    -1.814964200000    -0.022029700000
 C      4.894602000000    -3.225403400000     0.032684300000
 C     -4.985919800000    -2.410696000000    -1.858737100000
 C     -4.746141800000     0.041333200000    -2.014649400000
 C      2.057110900000    -5.493681900000     0.076507400000
 C      0.531268600000    -5.846564100000     0.057125400000
 C     -5.068538900000     2.484566900000    -1.792906900000
 C     -3.005677100000     3.830165900000    -1.966625700000
 C     -3.013001700000    -5.039704600000    -0.016767900000
 C     -4.234317100000    -4.060392000000    -0.057789000000
 C     -1.287781800000     5.596068300000    -1.735831500000
 C      1.019242700000     4.732993800000    -1.979180100000
 C     -5.168160800000    -2.488973800000     1.735029300000
 C     -4.853537000000    -0.045597800000     1.970584400000
 C      3.459975200000     4.403296700000    -1.828634800000
 C     -3.059968100000    -3.763325300000     1.975272200000
 C     -1.286902500000    -5.472967600000     1.818077900000
 C     -5.086803800000     2.406315700000     1.804973500000
 C     -2.982294300000     3.689028200000     2.019076500000
 C      1.027445600000    -4.623593300000     2.022013000000
 C      3.472004800000    -4.319386400000     1.850897600000
 C     -1.223221400000     5.414183900000     1.856481300000
 C      1.119681700000     4.653308900000     2.005156300000
 C      4.349551700000    -2.018552000000     1.993657100000
 C      5.720159700000     0.028889200000     1.749041200000
 C      3.573048000000     4.429765400000     1.766836600000
 C      4.402874100000     2.111246400000     1.962171600000
 H     -6.814226300000    -1.221415600000    -0.131699400000
 H      5.487214900000     0.046336900000     2.817484600000
 H      3.435695500000     4.220156000000     2.831465700000
 H      4.259856800000     5.277533100000     1.624263500000
 H      6.808538500000     0.029632600000     1.589425200000
 H      4.159545200000    -5.177337900000     1.785775000000
 H     -1.469844400000     6.485408600000     1.789406400000
 H     -1.144693900000     5.102875700000     2.902109400000
 H      3.281097900000    -4.058931800000     2.896006700000
 H     -1.537909100000    -6.539634000000     1.714550700000
 H     -6.076736000000     2.874227200000     1.693162500000
 H     -4.846277400000     2.262703900000     2.862233900000
 H     -1.247739300000    -5.187626600000     2.873204200000
 H      3.256101400000     4.186130300000    -2.881110000000
 H     -4.966443500000    -2.389297600000     2.805259100000
 H     -6.148058500000    -2.959355100000     1.567012100000
 H      4.140084600000     5.263915100000    -1.735790000000
 H     -5.205541200000    -4.575158800000    -0.123543300000
 H     -1.531222500000     6.655465200000    -1.568215700000
 H     -3.304623500000    -6.101126600000     0.014169600000
 H     -1.243951900000     5.374990400000    -2.805991000000
 H      0.333264100000    -6.929822300000     0.062604100000
 H     -6.051789800000     2.963814100000    -1.671666600000
 H      2.709717200000    -6.378565200000     0.139012900000
 H     -4.814114300000     2.390668300000    -2.852485200000
 H      5.616030000000    -4.054522100000     0.100972400000
 H     -5.977533400000    -2.885765500000    -1.795661500000
 H      6.670255300000    -1.859406700000    -0.084079300000
 H     -4.692118800000    -2.272633600000    -2.903332200000
 H      6.668465200000     1.858858100000    -0.130346900000
 H      5.229455700000    -0.043278300000    -2.892632400000
 H      5.615791900000     4.060211100000    -0.083428100000
 H      6.645980800000    -0.027137000000    -1.775409600000
 H      2.706504600000     6.389108300000    -0.037066800000
 H      4.238314100000    -5.348713000000    -1.576636600000
 H      0.330194100000     6.929686700000     0.114382200000
 H      3.406491000000    -4.331327500000    -2.812480800000
 H     -3.301671300000     6.093878300000     0.134230400000
 H     -1.142675700000    -5.300187700000    -2.839528300000
 H     -5.206695700000     4.570726500000     0.037749500000
 H     -1.460017200000    -6.611404600000    -1.641841800000
 H     -6.816990600000     1.217066300000    -0.014516500000

 1 61 2.0 
 2 65 2.0 
 3 69 2.0 
 4 57 2.0 
 5 53 2.0 
 6 49 2.0 
 7 45 2.0 
 8 71 2.0 
 9 76 2.0 
 10 80 2.0 
 11 84 2.0 
 12 81 2.0 
 13 77 2.0 
 14 73 2.0 
 15 43 1.0 60 1.0 61 1.0 
 16 44 1.0 61 1.0 64 1.0 
 17 47 1.0 64 1.0 65 1.0 
 18 48 1.0 65 1.0 68 1.0 
 19 51 1.0 68 1.0 69 1.0 
 20 52 1.0 69 1.0 72 1.0 
 21 55 1.0 57 1.0 72 1.0 
 22 54 1.0 56 1.0 57 1.0 
 23 53 1.0 54 1.0 58 1.0 
 24 50 1.0 53 1.0 59 1.0 
 25 49 1.0 50 1.0 62 1.0 
 26 46 1.0 49 1.0 63 1.0 
 27 45 1.0 46 1.0 66 1.0 
 28 45 1.0 60 1.0 67 1.0 
 29 43 1.0 70 1.0 71 1.0 
 30 44 1.0 71 1.0 75 1.0 
 31 47 1.0 75 1.0 76 1.0 
 32 48 1.0 76 1.0 79 1.0 
 33 51 1.0 79 1.0 80 1.0 
 34 52 1.0 80 1.0 83 1.0 
 35 55 1.0 83 1.0 84 1.0 
 36 56 1.0 82 1.0 84 1.0 
 37 58 1.0 81 1.0 82 1.0 
 38 59 1.0 78 1.0 81 1.0 
 39 62 1.0 77 1.0 78 1.0 
 40 63 1.0 74 1.0 77 1.0 
 41 66 1.0 73 1.0 74 1.0 
 42 67 1.0 70 1.0 73 1.0 
 43 44 1.0 85 1.0 
 44 126 1.0 
 45 
 46 123 1.0 125 1.0 
 47 48 1.0 124 1.0 
 48 122 1.0 
 49 
 50 119 1.0 121 1.0 
 51 52 1.0 120 1.0 
 52 118 1.0 
 53 
 54 115 1.0 117 1.0 
 55 56 1.0 116 1.0 
 56 114 1.0 
 57 
 58 59 1.0 112 1.0 
 59 110 1.0 
 60 111 1.0 113 1.0 
 61 
 62 63 1.0 108 1.0 
 63 106 1.0 
 64 107 1.0 109 1.0 
 65 
 66 67 1.0 104 1.0 
 67 102 1.0 
 68 103 1.0 105 1.0 
 69 
 70 99 1.0 100 1.0 
 71 
 72 98 1.0 101 1.0 
 73 
 74 94 1.0 97 1.0 
 75 95 1.0 96 1.0 
 76 
 77 
 78 90 1.0 93 1.0 
 79 91 1.0 92 1.0 
 80 
 81 
 82 86 1.0 89 1.0 
 83 87 1.0 88 1.0 
 84 
 85 
 86 
 87 
 88 
 89 
 90 
 91 
 92 
 93 
 94 
 95 
 96 
 97 
 98 
 99 
 100 
 101 
 102 
 103 
 104 
 105 
 106 
 107 
 108 
 109 
 110 
 111 
 112 
 113 
 114 
 115 
 116 
 117 
 118 
 119 
 120 
 121 
 122 
 123 
 124 
 125 
 126 







