%mem=100GB
%nproc=28
#p opt(nomicro,recalc=5,loose) freq geom=conn external="/share/home/jwweng/XO/stable20240408/external_uxo.py" nosymm

handle gaussian file - write gjf file with lines

0 1
 C      1.391822400000    -7.216764300000     0.000000000000
 C     -5.558013400000     4.808759200000     0.000000000000
 C     -4.646665400000     2.851407300000     1.259970300000
 C     -4.646665400000     2.851407300000    -1.259970300000
 C      0.150443800000    -5.450250300000    -1.260038700000
 C      0.150443800000    -5.450250300000     1.260038700000
 C     -4.465500300000     3.727450900000     0.000000000000
 C      1.000001000000    -5.730402200000     0.000000000000
 C      2.958234700000     1.709743800000     0.000000000000
 C      4.167428800000    -0.257279400000     0.000000000000
 C      1.857937300000     3.739650500000     0.000000000000
 C     -0.632956700000     3.955375300000     0.000000000000
 C      3.110488900000    -2.523177300000     0.000000000000
 C      0.550219700000     3.110283700000     0.000000000000
 C      2.969065800000    -1.076059800000     0.000000000000
 C      4.427655200000    -3.042643600000     0.000000000000
 C     -0.425497400000     5.356006900000     0.000000000000
 C      2.221759500000    -4.804919500000     0.000000000000
 C     -3.053712500000     4.324204900000     0.000000000000
 C      1.707435500000     0.986969300000     0.000000000000
 C     -1.950046300000     3.471314700000     0.000000000000
 C      2.033622400000    -3.422838700000     0.000000000000
 C      5.530918100000    -2.117299600000     0.000000000000
 C      0.927176300000     5.849848600000     0.000000000000
 C      0.511930000000     1.726208700000     0.000000000000
 C      1.750868100000    -0.417946300000     0.000000000000
 C      3.542243600000    -5.298159400000     0.000000000000
 C     -2.821913200000     5.714646500000     0.000000000000
 C      4.623880800000    -4.432812200000     0.000000000000
 C     -1.532152100000     6.219987000000     0.000000000000
 N      4.150196100000     1.072177700000     0.000000000000
 N      3.001195100000     3.060855800000     0.000000000000
 N      5.437137000000    -0.820786700000     0.000000000000
 N      2.003683600000     5.121162900000     0.000000000000
 H     -2.118266500000     2.398750100000     0.000000000000
 H      1.020225000000    -3.033320500000     0.000000000000
 H      3.721144700000    -6.367338200000     0.000000000000
 H     -3.659063300000     6.403353800000     0.000000000000
 H     -0.434821000000     1.191000000000     0.000000000000
 H      0.814262400000    -0.970847200000     0.000000000000
 H      5.638638100000    -4.824105700000     0.000000000000
 H     -1.364713400000     7.294605700000     0.000000000000
 H      1.071728900000     6.933051700000     0.000000000000
 H      6.541613200000    -2.532954600000     0.000000000000
 H     -6.542166400000     4.328785000000     0.000000000000
 H      0.484851400000    -7.830307500000     0.000000000000
 H     -0.193561400000    -4.411619000000     1.287966100000
 H     -0.193561400000    -4.411619000000    -1.287966100000
 H     -3.917997800000     2.035166500000     1.288201700000
 H     -3.917997800000     2.035166500000    -1.288201700000
 H     -5.496513300000     5.445677900000     0.889020100000
 H     -5.496513300000     5.445677900000    -0.889020100000
 H      1.974462300000    -7.481278600000    -0.889056500000
 H      1.974462300000    -7.481278600000     0.889056500000
 H      0.729975500000    -5.640325200000    -2.169318200000
 H      0.729975500000    -5.640325200000     2.169318200000
 H     -4.522567400000     3.448503100000     2.169298800000
 H     -4.522567400000     3.448503100000    -2.169298800000
 H     -5.650266100000     2.411261400000     1.268734700000
 H     -5.650266100000     2.411261400000    -1.268734700000
 H     -0.731580700000    -6.100658100000     1.269094600000
 H     -0.731580700000    -6.100658100000    -1.269094600000

 1 8 1.0 46 1.0 53 1.0 54 1.0 
 2 7 1.0 45 1.0 51 1.0 52 1.0 
 3 7 1.0 49 1.0 57 1.0 59 1.0 
 4 7 1.0 50 1.0 58 1.0 60 1.0 
 5 8 1.0 48 1.0 55 1.0 62 1.0 
 6 8 1.0 47 1.0 56 1.0 61 1.0 
 7 19 1.0 
 8 18 1.0 
 9 20 2.0 31 1.0 32 1.0 
 10 15 1.0 31 2.0 33 1.0 
 11 14 1.0 32 2.0 34 1.0 
 12 14 1.0 17 2.0 21 1.0 
 13 15 1.0 16 2.0 22 1.0 
 14 25 2.0 
 15 26 2.0 
 16 23 1.0 29 1.0 
 17 24 1.0 30 1.0 
 18 22 2.0 27 1.0 
 19 21 2.0 28 1.0 
 20 25 1.0 26 1.0 
 21 35 1.0 
 22 36 1.0 
 23 33 2.0 44 1.0 
 24 34 2.0 43 1.0 
 25 39 1.0 
 26 40 1.0 
 27 29 2.0 37 1.0 
 28 30 2.0 38 1.0 
 29 41 1.0 
 30 42 1.0 
 31 
 32 
 33 
 34 
 35 
 36 
 37 
 38 
 39 
 40 
 41 
 42 
 43 
 44 
 45 
 46 
 47 
 48 
 49 
 50 
 51 
 52 
 53 
 54 
 55 
 56 
 57 
 58 
 59 
 60 
 61 
 62 







