%mem=100GB
%nproc=28
#p WB97XD/6-31G** geom=conn nosymm

handle gaussian file - write gjf file with lines

0 1
 C      5.050842600000    -0.783539900000     0.000901400000
 C      5.050842600000     0.783539900000    -0.000901400000
 N      4.303058000000     1.118887500000    -1.198224900000
 C      4.038156200000     0.001689200000    -1.990876900000
 N      4.439754700000    -1.115336000000    -1.264232400000
 N      4.303058000000    -1.118887500000     1.198224900000
 C      4.038156200000    -0.001689200000     1.990876900000
 N      4.439754700000     1.115336000000     1.264232400000
 O      3.588625000000    -0.005892300000     3.117727200000
 O      3.588625000000     0.005892300000    -3.117727200000
 C      4.245914900000     2.453729200000     1.772581100000
 C      4.247949300000     2.450205600000    -1.772581100000
 C      1.846855800000    -4.765928000000     0.000901400000
 C      3.203986800000    -3.982388100000    -0.000901400000
 N      3.120514000000    -3.167113800000    -1.198224900000
 C      2.020541000000    -3.496301300000    -1.990876900000
 N      1.253968000000    -4.402608400000    -1.264232400000
 N      1.182544000000    -4.286001300000     1.198224900000
 C      2.017615200000    -3.497990500000     1.990876900000
 N      3.185786700000    -3.287272300000     1.264232400000
 O      1.789209600000    -3.110786600000     3.117727200000
 O      1.799415400000    -3.104894300000    -3.117727200000
 C      4.247949300000    -2.450205600000     1.772581100000
 C      4.245914900000    -2.453729200000    -1.772581100000
 C     -1.846855800000     4.765928000000     0.000901400000
 C     -3.203986800000     3.982388100000    -0.000901400000
 N     -3.120514000000     3.167113800000    -1.198224900000
 C     -2.020541000000     3.496301300000    -1.990876900000
 N     -1.253968000000     4.402608400000    -1.264232400000
 N     -1.182544000000     4.286001300000     1.198224900000
 C     -2.017615200000     3.497990500000     1.990876900000
 N     -3.185786700000     3.287272300000     1.264232400000
 O     -1.789209600000     3.110786600000     3.117727200000
 O     -1.799415400000     3.104894300000    -3.117727200000
 C     -4.247949300000     2.450205600000     1.772581100000
 C     -4.245914900000     2.453729200000    -1.772581100000
 C      3.203986800000     3.982388100000     0.000901400000
 C      1.846855800000     4.765928000000    -0.000901400000
 N      1.182544000000     4.286001300000    -1.198224900000
 C      2.017615200000     3.497990500000    -1.990876900000
 N      3.185786700000     3.287272300000    -1.264232400000
 N      3.120514000000     3.167113800000     1.198224900000
 C      2.020541000000     3.496301300000     1.990876900000
 N      1.253968000000     4.402608400000     1.264232400000
 O      1.799415400000     3.104894300000     3.117727200000
 O      1.789209600000     3.110786600000    -3.117727200000
 C     -0.002034400000     4.903934800000     1.772581100000
 C      0.002034400000     4.903934800000    -1.772581100000
 C     -3.203986800000    -3.982388100000     0.000901400000
 C     -1.846855800000    -4.765928000000    -0.000901400000
 N     -1.182544000000    -4.286001300000    -1.198224900000
 C     -2.017615200000    -3.497990500000    -1.990876900000
 N     -3.185786700000    -3.287272300000    -1.264232400000
 N     -3.120514000000    -3.167113800000     1.198224900000
 C     -2.020541000000    -3.496301300000     1.990876900000
 N     -1.253968000000    -4.402608400000     1.264232400000
 O     -1.799415400000    -3.104894300000     3.117727200000
 O     -1.789209600000    -3.110786600000    -3.117727200000
 C      0.002034400000    -4.903934800000     1.772581100000
 C     -0.002034400000    -4.903934800000    -1.772581100000
 C     -5.050842600000     0.783539900000     0.000901400000
 C     -5.050842600000    -0.783539900000    -0.000901400000
 N     -4.303058000000    -1.118887500000    -1.198224900000
 C     -4.038156200000    -0.001689200000    -1.990876900000
 N     -4.439754700000     1.115336000000    -1.264232400000
 N     -4.303058000000     1.118887500000     1.198224900000
 C     -4.038156200000     0.001689200000     1.990876900000
 N     -4.439754700000    -1.115336000000     1.264232400000
 O     -3.588625000000     0.005892300000     3.117727200000
 O     -3.588625000000    -0.005892300000    -3.117727200000
 C     -4.245914900000    -2.453729200000     1.772581100000
 C     -4.247949300000    -2.450205600000    -1.772581100000
 H      6.060328600000    -1.218514400000     0.057051500000
 H      6.060328600000     1.218514400000    -0.057051500000
 H      5.163713500000     3.035195300000     1.606397300000
 H      4.040101900000     2.353171500000     2.842051600000
 H      5.210413000000     2.954309400000    -1.606397300000
 H      4.057957200000     2.322245100000    -2.842051600000
 H      1.974899900000    -5.857655700000     0.057051500000
 H      4.085428700000    -4.639141300000    -0.057051500000
 H      4.057957200000    -2.322245100000     2.842051600000
 H      5.210413000000    -2.954309400000     1.606397300000
 H      4.040101900000    -2.353171500000    -2.842051600000
 H      5.163713500000    -3.035195300000    -1.606397300000
 H     -1.974899900000     5.857655700000     0.057051500000
 H     -4.085428700000     4.639141300000    -0.057051500000
 H     -5.210413000000     2.954309400000     1.606397300000
 H     -4.057957200000     2.322245100000     2.842051600000
 H     -5.163713500000     3.035195300000    -1.606397300000
 H     -4.040101900000     2.353171500000    -2.842051600000
 H      4.085428700000     4.639141300000     0.057051500000
 H      1.974899900000     5.857655700000    -0.057051500000
 H     -0.017855300000     4.675416600000     2.842051600000
 H     -0.046699500000     5.989504700000     1.606397300000
 H      0.017855300000     4.675416600000    -2.842051600000
 H      0.046699500000     5.989504700000    -1.606397300000
 H     -4.085428700000    -4.639141300000     0.057051500000
 H     -1.974899900000    -5.857655700000    -0.057051500000
 H      0.046699500000    -5.989504700000     1.606397300000
 H      0.017855300000    -4.675416600000     2.842051600000
 H     -0.046699500000    -5.989504700000    -1.606397300000
 H     -0.017855300000    -4.675416600000    -2.842051600000
 H     -6.060328600000     1.218514400000     0.057051500000
 H     -6.060328600000    -1.218514400000    -0.057051500000
 H     -4.040101900000    -2.353171500000     2.842051600000
 H     -5.163713500000    -3.035195300000     1.606397300000
 H     -4.057957200000    -2.322245100000    -2.842051600000
 H     -5.210413000000    -2.954309400000    -1.606397300000

 1 2 1.0 5 1.0 6 1.0 73 1.0 
 2 3 1.0 8 1.0 74 1.0 
 3 4 1.0 12 1.0 
 4 5 1.0 10 2.0 
 5 24 1.0 
 6 7 1.0 23 1.0 
 7 8 1.0 9 2.0 
 8 11 1.0 
 9 
 10 
 11 42 1.0 75 1.0 76 1.0 
 12 41 1.0 77 1.0 78 1.0 
 13 14 1.0 17 1.0 18 1.0 79 1.0 
 14 15 1.0 20 1.0 80 1.0 
 15 16 1.0 24 1.0 
 16 17 1.0 22 2.0 
 17 60 1.0 
 18 19 1.0 59 1.0 
 19 20 1.0 21 2.0 
 20 23 1.0 
 21 
 22 
 23 81 1.0 82 1.0 
 24 83 1.0 84 1.0 
 25 26 1.0 29 1.0 30 1.0 85 1.0 
 26 27 1.0 32 1.0 86 1.0 
 27 28 1.0 36 1.0 
 28 29 1.0 34 2.0 
 29 48 1.0 
 30 31 1.0 47 1.0 
 31 32 1.0 33 2.0 
 32 35 1.0 
 33 
 34 
 35 66 1.0 87 1.0 88 1.0 
 36 65 1.0 89 1.0 90 1.0 
 37 38 1.0 41 1.0 42 1.0 91 1.0 
 38 39 1.0 44 1.0 92 1.0 
 39 40 1.0 48 1.0 
 40 41 1.0 46 2.0 
 41 
 42 43 1.0 
 43 44 1.0 45 2.0 
 44 47 1.0 
 45 
 46 
 47 93 1.0 94 1.0 
 48 95 1.0 96 1.0 
 49 50 1.0 53 1.0 54 1.0 97 1.0 
 50 51 1.0 56 1.0 98 1.0 
 51 52 1.0 60 1.0 
 52 53 1.0 58 2.0 
 53 72 1.0 
 54 55 1.0 71 1.0 
 55 56 1.0 57 2.0 
 56 59 1.0 
 57 
 58 
 59 99 1.0 100 1.0 
 60 101 1.0 102 1.0 
 61 62 1.0 65 1.0 66 1.0 103 1.0 
 62 63 1.0 68 1.0 104 1.0 
 63 64 1.0 72 1.0 
 64 65 1.0 70 2.0 
 65 
 66 67 1.0 
 67 68 1.0 69 2.0 
 68 71 1.0 
 69 
 70 
 71 105 1.0 106 1.0 
 72 107 1.0 108 1.0 
 73 
 74 
 75 
 76 
 77 
 78 
 79 
 80 
 81 
 82 
 83 
 84 
 85 
 86 
 87 
 88 
 89 
 90 
 91 
 92 
 93 
 94 
 95 
 96 
 97 
 98 
 99 
 100 
 101 
 102 
 103 
 104 
 105 
 106 
 107 
 108 







