%mem=100GB
%nproc=28
#p opt(nomicro,recalc=5) freq geom=conn external="/share/home/jwweng/XO/stable20240408/external_uxo.py" nosymm

handle gaussian file - write gjf file with lines

0 1
 C     -9.741091700000    -1.413444200000     0.000000000000
 C     -9.796526300000    -0.692020600000     1.213567900000
 C     -9.796526300000     0.692020600000     1.213567900000
 C     -9.741091700000     1.413444200000     0.000000000000
 C     -9.796526300000     0.692020600000    -1.213567900000
 C     -9.796526300000    -0.692020600000    -1.213567900000
 C     -9.488444500000    -2.804239900000     0.000000000000
 C     -9.071100800000    -3.950882200000     0.000000000000
 C     -9.488444500000     2.804239900000     0.000000000000
 C     -9.071100800000     3.950882200000     0.000000000000
 C     -8.370653600000     5.178692000000     0.000000000000
 C     -7.949396800000     5.766967200000     1.213567900000
 C     -7.059752200000     6.827204300000     1.213567900000
 C     -6.553564800000     7.344214100000     0.000000000000
 C     -7.059752200000     6.827204300000    -1.213567900000
 C     -7.949396800000     5.766967200000    -1.213567900000
 C     -8.370653600000    -5.178692000000     0.000000000000
 C     -7.949396800000    -5.766967200000     1.213567900000
 C     -7.059752200000    -6.827204300000     1.213567900000
 C     -6.553564800000    -7.344214100000     0.000000000000
 C     -7.059752200000    -6.827204300000    -1.213567900000
 C     -7.949396800000    -5.766967200000    -1.213567900000
 C     -5.466039500000     8.247226900000     0.000000000000
 C     -4.409288200000     8.857342500000     0.000000000000
 C     -3.083493600000     9.347660700000     0.000000000000
 C     -2.382656200000     9.527526900000     1.213567900000
 C     -1.019641700000     9.767863200000     1.213567900000
 C     -0.299552000000     9.838544700000     0.000000000000
 C     -1.019641700000     9.767863200000    -1.213567900000
 C     -2.382656200000     9.527526900000    -1.213567900000
 C      6.094624400000     7.729310800000     0.000000000000
 C      5.497570600000     8.138030300000    -1.213567900000
 C      4.298955700000     8.830051000000    -1.213567900000
 C      3.646467300000     9.142755000000     0.000000000000
 C      4.298955700000     8.830051000000     1.213567900000
 C      5.497570600000     8.138030300000     1.213567900000
 C      2.315679300000     9.619353900000     0.000000000000
 C      1.113986100000     9.831244800000     0.000000000000
 C      9.442408500000     2.700322700000     1.213567900000
 C      8.969038500000     4.000896000000     1.213567900000
 C      8.670205600000     4.659852700000     0.000000000000
 C      8.969038500000     4.000896000000    -1.213567900000
 C      9.442408500000     2.700322700000    -1.213567900000
 C      7.172765200000     6.815114000000     0.000000000000
 C      7.957114700000     5.880362600000     0.000000000000
 C      9.637058400000     2.003446500000     0.000000000000
 C     -5.466039500000    -8.247226900000     0.000000000000
 C     -4.409288200000    -8.857342500000     0.000000000000
 C     -3.083493600000    -9.347660700000     0.000000000000
 C     -2.382656200000    -9.527526900000    -1.213567900000
 C     -1.019641700000    -9.767863200000    -1.213567900000
 C     -0.299552000000    -9.838544700000     0.000000000000
 C     -1.019641700000    -9.767863200000     1.213567900000
 C     -2.382656200000    -9.527526900000     1.213567900000
 C      8.670205600000    -4.659852700000     0.000000000000
 C      8.969038500000    -4.000896000000    -1.213567900000
 C      9.442408500000    -2.700322700000    -1.213567900000
 C      9.637058400000    -2.003446500000     0.000000000000
 C      9.442408500000    -2.700322700000     1.213567900000
 C      8.969038500000    -4.000896000000     1.213567900000
 C      9.875327800000    -0.610115600000     0.000000000000
 C      9.875327800000     0.610115600000     0.000000000000
 C      3.646467300000    -9.142755000000     0.000000000000
 C      4.298955700000    -8.830051000000     1.213567900000
 C      5.497570600000    -8.138030300000     1.213567900000
 C      6.094624400000    -7.729310800000     0.000000000000
 C      5.497570600000    -8.138030300000    -1.213567900000
 C      4.298955700000    -8.830051000000    -1.213567900000
 C      2.315679300000    -9.619353900000     0.000000000000
 C      1.113986100000    -9.831244800000     0.000000000000
 C      7.172765200000    -6.815114000000     0.000000000000
 C      7.957114700000    -5.880362600000     0.000000000000
 H     -9.784363400000    -1.237370300000     2.151773400000
 H     -9.784363400000     1.237370300000     2.151773400000
 H     -9.784363400000     1.237370300000    -2.151773400000
 H     -9.784363400000    -1.237370300000    -2.151773400000
 H     -8.290623600000     5.341386900000     2.151773400000
 H     -6.699890900000     7.237148300000     2.151773400000
 H     -6.699890900000     7.237148300000    -2.151773400000
 H     -8.290623600000     5.341386900000    -2.151773400000
 H     -8.290623600000    -5.341386900000     2.151773400000
 H     -6.699890900000    -7.237148300000     2.151773400000
 H     -6.699890900000    -7.237148300000    -2.151773400000
 H     -8.290623600000    -5.341386900000    -2.151773400000
 H     -2.917608800000     9.420849900000     2.151773400000
 H     -0.480465000000     9.850584100000     2.151773400000
 H     -0.480465000000     9.850584100000    -2.151773400000
 H     -2.917608800000     9.420849900000    -2.151773400000
 H      5.963775900000     7.854822100000    -2.151773400000
 H      3.820587600000     9.092192500000    -2.151773400000
 H      3.820587600000     9.092192500000     2.151773400000
 H      5.963775900000     7.854822100000     2.151773400000
 H      9.617499700000     2.183701600000     2.151773400000
 H      8.771088500000     4.509197200000     2.151773400000
 H      8.771088500000     4.509197200000    -2.151773400000
 H      9.617499700000     2.183701600000    -2.151773400000
 H     -2.917608800000    -9.420849900000    -2.151773400000
 H     -0.480465000000    -9.850584100000    -2.151773400000
 H     -0.480465000000    -9.850584100000     2.151773400000
 H     -2.917608800000    -9.420849900000     2.151773400000
 H      8.771088500000    -4.509197200000    -2.151773400000
 H      9.617499700000    -2.183701600000    -2.151773400000
 H      9.617499700000    -2.183701600000     2.151773400000
 H      8.771088500000    -4.509197200000     2.151773400000
 H      3.820587600000    -9.092192500000     2.151773400000
 H      5.963775900000    -7.854822100000     2.151773400000
 H      5.963775900000    -7.854822100000    -2.151773400000
 H      3.820587600000    -9.092192500000    -2.151773400000

 1 2 1.0 6 2.0 7 1.0 
 2 3 2.0 73 1.0 
 3 4 1.0 74 1.0 
 4 5 2.0 9 1.0 
 5 6 1.0 75 1.0 
 6 76 1.0 
 7 8 3.0 
 8 17 1.0 
 9 10 3.0 
 10 11 1.0 
 11 12 1.0 16 2.0 
 12 13 2.0 77 1.0 
 13 14 1.0 78 1.0 
 14 15 2.0 23 1.0 
 15 16 1.0 79 1.0 
 16 80 1.0 
 17 18 2.0 22 1.0 
 18 19 1.0 81 1.0 
 19 20 2.0 82 1.0 
 20 21 1.0 47 1.0 
 21 22 2.0 83 1.0 
 22 84 1.0 
 23 24 3.0 
 24 25 1.0 
 25 26 1.0 30 2.0 
 26 27 2.0 85 1.0 
 27 28 1.0 86 1.0 
 28 29 2.0 38 1.0 
 29 30 1.0 87 1.0 
 30 88 1.0 
 31 32 2.0 36 1.0 44 1.0 
 32 33 1.0 89 1.0 
 33 34 2.0 90 1.0 
 34 35 1.0 37 1.0 
 35 36 2.0 91 1.0 
 36 92 1.0 
 37 38 3.0 
 38 
 39 40 1.0 46 2.0 93 1.0 
 40 41 2.0 94 1.0 
 41 42 1.0 45 1.0 
 42 43 2.0 95 1.0 
 43 46 1.0 96 1.0 
 44 45 3.0 
 45 
 46 62 1.0 
 47 48 3.0 
 48 49 1.0 
 49 50 1.0 54 2.0 
 50 51 2.0 97 1.0 
 51 52 1.0 98 1.0 
 52 53 2.0 70 1.0 
 53 54 1.0 99 1.0 
 54 100 1.0 
 55 56 2.0 60 1.0 72 1.0 
 56 57 1.0 101 1.0 
 57 58 2.0 102 1.0 
 58 59 1.0 61 1.0 
 59 60 2.0 103 1.0 
 60 104 1.0 
 61 62 3.0 
 62 
 63 64 2.0 68 1.0 69 1.0 
 64 65 1.0 105 1.0 
 65 66 2.0 106 1.0 
 66 67 1.0 71 1.0 
 67 68 2.0 107 1.0 
 68 108 1.0 
 69 70 3.0 
 70 
 71 72 3.0 
 72 
 73 
 74 
 75 
 76 
 77 
 78 
 79 
 80 
 81 
 82 
 83 
 84 
 85 
 86 
 87 
 88 
 89 
 90 
 91 
 92 
 93 
 94 
 95 
 96 
 97 
 98 
 99 
 100 
 101 
 102 
 103 
 104 
 105 
 106 
 107 
 108 







