%mem=100GB
%nproc=28
#p WB97XD/6-31G** geom=conn nosymm

handle gaussian file - write gjf file with lines

4 1
 N     -0.239992900000     1.271175300000     8.328896200000
 N      2.531968700000     5.007757400000    -6.294168200000
 C     -2.612099900000    -4.823612500000     7.782459500000
 H     -2.026858800000    -5.623881900000     8.239144300000
 H     -3.660175100000    -4.964833000000     8.054162000000
 C     -2.101579400000    -3.459072400000     8.199025700000
 C     -0.917506500000    -3.341922500000     8.930820000000
 H     -0.359286900000    -4.230223400000     9.214357300000
 C     -0.458683400000    -2.086596500000     9.337480400000
 H      0.449183600000    -2.018245600000     9.930922100000
 C     -1.178299900000    -0.932897900000     9.017488500000
 C     -2.369793100000    -1.052140700000     8.288273300000
 H     -2.963542100000    -0.171451700000     8.057216400000
 C     -2.826201200000    -2.301035200000     7.883597300000
 H     -3.767464400000    -2.371229900000     7.344412700000
 C     -0.694015600000     0.425194300000     9.483585200000
 H     -1.484308300000     0.987200400000     9.985327500000
 H      0.150993000000     0.332773300000    10.168325400000
 C      0.942278000000     0.992564800000     7.721870200000
 H      1.533267800000     0.202328500000     8.169365900000
 C      1.335574100000     1.667599100000     6.589841100000
 H      2.276409500000     1.390180000000     6.129232300000
 C      0.508321300000     2.655647500000     6.011900500000
 C     -0.683270900000     2.956073500000     6.705404200000
 H     -1.341017600000     3.749536700000     6.370312300000
 C     -1.030935000000     2.261342600000     7.843635900000
 H     -1.935188500000     2.469820100000     8.403184200000
 C      0.849231300000     3.282331100000     4.731441100000
 C      2.184436900000     3.385998000000     4.294260000000
 H      3.000400900000     3.123863200000     4.961005900000
 C      2.481328900000     3.859987300000     3.025416800000
 H      3.521144400000     3.955485600000     2.729955100000
 C      1.458771700000     4.230350000000     2.130494700000
 C      0.130136200000     4.181446500000     2.591804000000
 H     -0.683278800000     4.453949500000     1.927435500000
 C     -0.169294200000     3.725367200000     3.866377000000
 H     -1.210427300000     3.652215400000     4.165231100000
 C      1.749434000000     4.580793100000     0.725038500000
 C      2.855243100000     4.014228600000     0.064230500000
 H      3.529413400000     3.357353200000     0.604003900000
 C      3.066264000000     4.225757200000    -1.289642200000
 H      3.900568300000     3.727459100000    -1.773665600000
 C      2.168753300000     5.002639600000    -2.046616300000
 C      1.094289300000     5.619344000000    -1.375873300000
 H      0.424428600000     6.285024500000    -1.911799200000
 C      0.896863200000     5.420398200000    -0.017815800000
 H      0.077203900000     5.933296500000     0.474890200000
 C      2.313502400000     5.087255700000    -3.502825800000
 C      3.559995900000     4.938150300000    -4.147197300000
 H      4.479389100000     4.866796200000    -3.577863500000
 C      3.643099500000     4.901751900000    -5.522373600000
 H      4.583871900000     4.793586300000    -6.049167400000
 C      1.322068400000     5.210489600000    -5.711921700000
 H      0.478519300000     5.302741600000    -6.385658100000
 C      1.192668000000     5.264764100000    -4.343651500000
 H      0.201426900000     5.403143300000    -3.928239600000
 N      0.240148100000    -1.271403300000    -8.329033100000
 N     -2.531611700000    -5.007548000000     6.294114500000
 C      2.612542200000     4.823458700000    -7.782401600000
 H      2.027594100000     5.623745000000    -8.239444100000
 H      3.660696000000     4.964280600000    -8.054053000000
 C      2.101680500000     3.458933100000    -8.198630700000
 C      0.919474300000     3.342117100000    -8.933441500000
 H      0.362533800000     4.230607200000    -9.218891400000
 C      0.460623700000     2.086768500000    -9.340093400000
 H     -0.446005000000     2.018557100000    -9.935439000000
 C      1.178379700000     0.932789800000    -9.017058800000
 C      2.367862900000     1.051664300000    -8.284481200000
 H      2.959848900000     0.170605400000    -8.050326100000
 C      2.824280500000     2.300538700000    -7.879822700000
 H      3.763787400000     2.370372200000    -7.337537900000
 C      0.694408900000    -0.425314400000    -9.483471000000
 H      1.484964700000    -0.987161100000    -9.984998500000
 H     -0.150332200000    -0.332875700000   -10.168549000000
 C     -0.941565000000    -0.991808800000    -7.721342800000
 H     -1.531831400000    -0.200652000000    -8.168170200000
 C     -1.335043600000    -1.666940900000    -6.589455500000
 H     -2.275300000000    -1.388677700000    -6.128178100000
 C     -0.508471700000    -2.656018300000    -6.012255200000
 C      0.682480900000    -2.957381200000    -6.706413500000
 H      1.339749800000    -3.751432800000    -6.371770200000
 C      1.030324600000    -2.262544400000    -7.844546400000
 H      1.934153300000    -2.471612200000    -8.404563500000
 C     -0.849532500000    -3.282857900000    -4.731912100000
 C     -2.184685200000    -3.385147800000    -4.294225900000
 H     -3.000606400000    -3.122110800000    -4.960667800000
 C     -2.481596100000    -3.858904500000    -3.025305600000
 H     -3.521401400000    -3.953083100000    -2.729378800000
 C     -1.459100100000    -4.230365500000    -2.130774700000
 C     -0.130562000000    -4.182628400000    -2.592506800000
 H      0.682829100000    -4.455589200000    -1.928299300000
 C      0.168864800000    -3.726814800000    -3.867180400000
 H      1.209972600000    -3.654597400000    -4.166358800000
 C     -1.749683900000    -4.580595800000    -0.725249900000
 C     -2.854803100000    -4.013021800000    -0.064166900000
 H     -3.528724000000    -3.355818700000    -0.603856300000
 C     -3.065626100000    -4.224279900000     1.289773400000
 H     -3.899281000000    -3.725145000000     1.774047900000
 C     -2.168615800000    -5.001974500000     2.046520400000
 C     -1.095006900000    -5.619822500000     1.375474100000
 H     -0.425698800000    -6.286228700000     1.911189200000
 C     -0.897751500000    -5.421071200000     0.017359000000
 H     -0.078900000000    -5.934972500000    -0.475641600000
 C     -2.313328700000    -5.086779700000     3.502724400000
 C     -3.559640400000    -4.936375500000     4.147189300000
 H     -4.478985000000    -4.864146100000     3.577893400000
 C     -3.642654200000    -4.900180200000     5.522358800000
 H     -4.583322400000    -4.791254000000     6.049178000000
 C     -1.321981800000    -5.211514500000     5.711777300000
 H     -0.478512000000    -5.305080800000     6.385428700000
 C     -1.192672800000    -5.265600700000     4.343473500000
 H     -0.201596800000    -5.405122000000     3.928045600000

 1 16 1.0 19 1.5 26 1.0 
 2 51 1.5 53 1.0 59 1.0 
 3 4 1.0 5 1.0 6 1.0 58 1.0 
 4 
 5 
 6 7 1.0 14 2.0 
 7 8 1.0 9 2.0 
 8 
 9 10 1.0 11 1.0 
 10 
 11 12 2.0 16 1.0 
 12 13 1.0 14 1.0 
 13 
 14 15 1.0 
 15 
 16 17 1.0 18 1.0 
 17 
 18 
 19 20 1.0 21 1.0 
 20 
 21 22 1.0 23 2.0 
 22 
 23 24 1.0 28 1.0 
 24 25 1.0 26 2.0 
 25 
 26 27 1.0 
 27 
 28 29 1.0 36 2.0 
 29 30 1.0 31 2.0 
 30 
 31 32 1.0 33 1.0 
 32 
 33 34 2.0 38 1.0 
 34 35 1.0 36 1.0 
 35 
 36 37 1.0 
 37 
 38 39 1.0 46 2.0 
 39 40 1.0 41 2.0 
 40 
 41 42 1.0 43 1.0 
 42 
 43 44 2.0 48 1.0 
 44 45 1.0 46 1.0 
 45 
 46 47 1.0 
 47 
 48 49 2.0 55 1.0 
 49 50 1.0 51 1.0 
 50 
 51 52 1.0 
 52 
 53 54 1.0 55 2.0 
 54 
 55 56 1.0 
 56 
 57 72 1.0 75 1.5 82 1.0 
 58 107 1.5 109 1.0 
 59 60 1.0 61 1.0 62 1.0 
 60 
 61 
 62 63 1.0 70 2.0 
 63 64 1.0 65 2.0 
 64 
 65 66 1.0 67 1.0 
 66 
 67 68 2.0 72 1.0 
 68 69 1.0 70 1.0 
 69 
 70 71 1.0 
 71 
 72 73 1.0 74 1.0 
 73 
 74 
 75 76 1.0 77 1.0 
 76 
 77 78 1.0 79 2.0 
 78 
 79 80 1.0 84 1.0 
 80 81 1.0 82 2.0 
 81 
 82 83 1.0 
 83 
 84 85 1.0 92 2.0 
 85 86 1.0 87 2.0 
 86 
 87 88 1.0 89 1.0 
 88 
 89 90 2.0 94 1.0 
 90 91 1.0 92 1.0 
 91 
 92 93 1.0 
 93 
 94 95 2.0 102 1.0 
 95 96 1.0 97 1.0 
 96 
 97 98 1.0 99 2.0 
 98 
 99 100 1.0 104 1.0 
 100 101 1.0 102 2.0 
 101 
 102 103 1.0 
 103 
 104 105 2.0 111 1.0 
 105 106 1.0 107 1.0 
 106 
 107 108 1.0 
 108 
 109 110 1.0 111 2.0 
 110 
 111 112 1.0 
 112 







